Version 4
SHEET 1 880 680
WIRE -128 80 -192 80
WIRE 0 80 -48 80
WIRE 48 80 0 80
WIRE 176 80 128 80
WIRE 256 80 176 80
WIRE 400 80 336 80
WIRE 176 112 176 80
WIRE 336 112 336 80
WIRE 464 112 336 112
WIRE 544 112 464 112
WIRE -192 144 -192 80
WIRE 176 192 176 176
WIRE -192 240 -192 224
WIRE 0 272 0 80
WIRE 48 272 0 272
WIRE 176 272 112 272
WIRE 256 272 176 272
WIRE 336 272 336 112
WIRE 336 272 320 272
WIRE 464 272 464 192
WIRE 464 272 336 272
WIRE 544 272 544 176
WIRE 544 272 464 272
WIRE 176 368 176 352
FLAG 176 192 0
FLAG 176 368 0
FLAG 400 80 Vout
FLAG -192 240 0
SYMBOL res 144 64 R90
WINDOW 0 0 56 VBottom 2
WINDOW 3 32 56 VTop 2
SYMATTR InstName R1
SYMATTR Value {mc(9k,tola)}
SYMBOL res 352 64 R90
WINDOW 0 0 56 VBottom 2
WINDOW 3 32 56 VTop 2
SYMATTR InstName R2
SYMATTR Value {mc(9k,tola)}
SYMBOL res 192 368 R180
WINDOW 0 36 76 Left 2
WINDOW 3 36 40 Left 2
SYMATTR InstName R3
SYMATTR Value {mc(4k7,tola)}
SYMBOL cap 160 112 R0
SYMATTR InstName C1
SYMATTR Value {mc(4.7n,tolc)}
SYMBOL cap 112 256 R90
WINDOW 0 0 32 VBottom 2
WINDOW 3 -68 26 VTop 2
SYMATTR InstName C2
SYMATTR Value {mc(2.2n,tolc)}
SYMBOL cap 320 256 R90
WINDOW 0 0 32 VBottom 2
WINDOW 3 32 32 VTop 2
SYMATTR InstName C3
SYMATTR Value {mc(2.2n,tolc)}
SYMBOL voltage -192 128 R0
WINDOW 3 24 44 Left 2
WINDOW 123 0 0 Left 0
WINDOW 39 0 0 Left 0
SYMATTR Value ac
SYMATTR InstName ac
SYMBOL res 448 96 R0
SYMATTR InstName R4
SYMATTR Value 1Meg
SYMBOL cap 528 112 R0
SYMATTR InstName C4
SYMATTR Value 100p
SYMBOL res -32 64 R90
WINDOW 0 0 56 VBottom 2
WINDOW 3 32 56 VTop 2
SYMATTR InstName R5
SYMATTR Value 50
TEXT -112 392 Left 2 !.ac dec 1000 1 1g
TEXT 312 368 Left 2 !.param tola=0.05
TEXT 320 336 Left 2 !.param tolc=0.1
TEXT 376 232 Left 2 !;.step param run 1 100 1
