Version 4
SHEET 1 1396 680
WIRE 800 -128 784 -128
WIRE 720 -80 720 -96
WIRE 1024 -80 992 -80
WIRE 1120 -80 1088 -80
WIRE 1312 -80 1120 -80
WIRE 192 -64 64 -64
WIRE 336 -64 304 -64
WIRE 432 -64 400 -64
WIRE 624 -64 432 -64
WIRE 1120 -64 1120 -80
WIRE 432 -48 432 -64
WIRE 784 0 784 -128
WIRE 784 0 720 0
WIRE 800 0 784 0
WIRE 64 16 64 -64
WIRE 80 16 64 16
WIRE 624 16 624 -64
WIRE 704 16 624 16
WIRE 880 16 880 -128
WIRE 880 16 864 16
WIRE 912 16 880 16
WIRE 992 16 992 -80
WIRE 1024 16 992 16
WIRE 1104 16 1088 16
WIRE 1120 16 1104 16
WIRE -176 32 -176 16
WIRE 16 32 -64 32
WIRE 192 32 192 -64
WIRE 192 32 144 32
WIRE 224 32 192 32
WIRE 304 32 304 -64
WIRE 336 32 304 32
WIRE 416 32 400 32
WIRE 432 32 416 32
WIRE 704 32 704 16
WIRE 800 32 704 32
WIRE -64 48 -64 32
WIRE 16 48 16 32
WIRE 80 48 16 48
WIRE 992 64 992 16
WIRE 1216 64 1216 48
WIRE 304 80 304 32
WIRE 528 80 528 64
WIRE 1104 80 1104 16
WIRE 1184 80 1104 80
WIRE 416 96 416 32
WIRE 496 96 416 96
WIRE 1312 96 1312 -80
WIRE 1312 96 1248 96
WIRE 624 112 624 16
WIRE 624 112 560 112
WIRE 1184 112 1152 112
WIRE 496 128 464 128
WIRE -176 144 -176 112
WIRE -128 144 -176 144
WIRE -64 144 -64 128
WIRE 1216 160 1216 128
WIRE 528 176 528 144
WIRE 992 176 992 144
WIRE -176 192 -176 144
WIRE 304 192 304 160
WIRE 1152 192 1152 112
WIRE 1312 192 1312 176
WIRE 1312 192 1152 192
WIRE 464 208 464 128
WIRE 624 208 624 192
WIRE 624 208 464 208
WIRE 1312 208 1312 192
WIRE 624 224 624 208
WIRE 1312 320 1312 288
WIRE -176 336 -176 272
WIRE 624 336 624 304
FLAG -128 144 0
FLAG -176 16 vcc
FLAG -176 336 -vcc
FLAG 528 64 vcc
FLAG 528 176 -vcc
FLAG -64 144 0
FLAG 624 336 0
FLAG 304 192 0
FLAG -64 32 PENE
FLAG 1216 48 vcc
FLAG 1216 160 -vcc
FLAG 1312 320 0
FLAG 992 176 0
FLAG 112 0 vcc
FLAG 112 64 -vcc
FLAG 832 -16 vcc
FLAG 832 48 -vcc
FLAG 720 -96 0
SYMBOL Opamps\\opamp2 528 48 R0
SYMATTR InstName U1
SYMATTR Value tl084
SYMBOL voltage -176 16 R0
WINDOW 123 0 0 Left 0
WINDOW 39 0 0 Left 0
SYMATTR InstName V2
SYMATTR Value 15
SYMBOL voltage -176 176 R0
WINDOW 0 24 96 Left 2
WINDOW 3 24 16 Left 2
WINDOW 123 0 0 Left 0
WINDOW 39 0 0 Left 0
SYMATTR InstName V3
SYMATTR Value 15
SYMBOL voltage -64 32 R0
WINDOW 123 0 0 Left 0
WINDOW 39 0 0 Left 0
SYMATTR InstName ac
SYMATTR Value ac
SYMBOL res 320 16 R90
WINDOW 0 0 56 VBottom 2
WINDOW 3 32 56 VTop 2
SYMATTR InstName R1
SYMATTR Value 7K3
SYMBOL res 320 176 R180
WINDOW 0 36 76 Left 2
WINDOW 3 36 40 Left 2
SYMATTR InstName R3
SYMATTR Value 1.43K
SYMBOL cap 400 16 R90
WINDOW 0 0 32 VBottom 2
WINDOW 3 32 32 VTop 2
SYMATTR InstName C2
SYMATTR Value 560p
SYMBOL res 416 -64 R0
SYMATTR InstName R2
SYMATTR Value 5.56K
SYMBOL cap 400 -80 R90
WINDOW 0 0 32 VBottom 2
WINDOW 3 32 32 VTop 2
SYMATTR InstName C1
SYMATTR Value 560p
SYMBOL res 608 96 R0
SYMATTR InstName R4
SYMATTR Value 3.49k
SYMBOL res 608 208 R0
SYMATTR InstName R5
SYMATTR Value 1k
SYMBOL Opamps\\opamp2 1216 32 R0
SYMATTR InstName U2
SYMATTR Value tl084
SYMBOL res 1008 0 R90
WINDOW 0 0 56 VBottom 2
WINDOW 3 32 56 VTop 2
SYMATTR InstName R6
SYMATTR Value 5.24k
SYMBOL res 1008 160 R180
WINDOW 0 36 76 Left 2
WINDOW 3 36 40 Left 2
SYMATTR InstName R7
SYMATTR Value 3.99k
SYMBOL cap 1088 0 R90
WINDOW 0 0 32 VBottom 2
WINDOW 3 32 32 VTop 2
SYMATTR InstName C3
SYMATTR Value 560p
SYMBOL res 1104 -80 R0
SYMATTR InstName R8
SYMATTR Value 1.03k
SYMBOL cap 1088 -96 R90
WINDOW 0 0 32 VBottom 2
WINDOW 3 32 32 VTop 2
SYMATTR InstName C4
SYMATTR Value 560p
SYMBOL res 1296 80 R0
SYMATTR InstName R9
SYMATTR Value 3.49k
SYMBOL res 1296 192 R0
SYMATTR InstName R10
SYMATTR Value 1k
SYMBOL Opamps\\opamp2 112 -32 R0
SYMATTR InstName U3
SYMATTR Value tl084
SYMBOL Opamps\\opamp2 832 -48 R0
SYMATTR InstName U4
SYMATTR Value tl084
SYMBOL res 704 -96 R0
SYMATTR InstName R11
SYMATTR Value 1k
SYMBOL res 896 -144 R90
WINDOW 0 0 56 VBottom 2
WINDOW 3 32 56 VTop 2
SYMATTR InstName R12
SYMATTR Value 1k
TEXT -208 432 Left 2 !.ac dec 10000 100 2Meg
TEXT -312 -168 Left 2 !.param parama=0.01
TEXT -312 -136 Left 2 !.param paramb=0.1
TEXT -312 -104 Left 2 !;.step param run 1 100 1
TEXT -40 -56 Left 2 !.inc "../TL084.301"
