Version 4
SHEET 1 1036 680
WIRE 816 -368 720 -368
WIRE 720 -272 720 -288
WIRE 720 -272 624 -272
WIRE 624 -224 624 -272
WIRE 720 -176 720 -192
WIRE 816 -176 720 -176
WIRE 912 -16 704 -16
WIRE -560 80 -640 80
WIRE -464 80 -480 80
WIRE -368 80 -400 80
WIRE 64 80 -16 80
WIRE 160 80 144 80
WIRE 256 80 224 80
WIRE 592 80 256 80
WIRE 704 80 704 -16
WIRE 704 80 672 80
WIRE 752 80 704 80
WIRE 912 96 912 -16
WIRE 912 96 816 96
WIRE 592 112 592 80
WIRE 720 112 656 112
WIRE 752 112 720 112
WIRE -640 144 -640 80
WIRE -16 144 -16 80
WIRE 720 224 720 112
WIRE -640 272 -640 224
WIRE -16 272 -16 224
WIRE 720 336 720 304
FLAG -16 272 0
FLAG 816 -368 +vcc
FLAG 784 64 +vcc
FLAG 816 -176 -vcc
FLAG 784 128 -vcc
FLAG 624 -224 0
FLAG -16 80 in
FLAG 256 80 out
FLAG 720 336 0
FLAG -640 272 0
FLAG -368 160 0
SYMBOL Opamps\\opamp2 784 32 R0
SYMATTR InstName U1
SYMATTR Value TL084
SYMBOL voltage 720 -384 R0
SYMATTR InstName V2
SYMATTR Value 15
SYMBOL voltage 720 -288 R0
SYMATTR InstName V3
SYMATTR Value 15
SYMBOL voltage -16 128 R0
WINDOW 123 0 0 Left 0
WINDOW 39 0 0 Left 0
SYMATTR InstName V1
SYMATTR Value ac
SYMBOL res 160 64 R90
WINDOW 0 0 56 VBottom 2
WINDOW 3 32 56 VTop 2
SYMATTR InstName R1
SYMATTR Value 1300
SYMBOL cap 656 96 R90
WINDOW 0 0 32 VBottom 2
WINDOW 3 32 32 VTop 2
SYMATTR InstName C1
SYMATTR Value 1n
SYMBOL res 688 64 R90
WINDOW 0 0 56 VBottom 2
WINDOW 3 32 56 VTop 2
SYMATTR InstName R2
SYMATTR Value 51
SYMBOL res 704 208 R0
SYMATTR InstName R3
SYMATTR Value 200k
SYMBOL cap 160 64 M90
WINDOW 0 0 32 VBottom 2
WINDOW 3 32 32 VTop 2
SYMATTR InstName C2
SYMATTR Value 22n
SYMBOL voltage -640 128 R0
WINDOW 123 0 0 Left 0
WINDOW 39 0 0 Left 0
SYMATTR InstName V4
SYMATTR Value ac
SYMBOL res -464 64 R90
WINDOW 0 0 56 VBottom 2
WINDOW 3 32 56 VTop 2
SYMATTR InstName R4
SYMATTR Value 1300
SYMBOL cap -464 64 M90
WINDOW 0 0 32 VBottom 2
WINDOW 3 32 32 VTop 2
SYMATTR InstName C3
SYMATTR Value 22n
SYMBOL ind -384 64 R0
SYMATTR InstName L1
SYMATTR Value 10m
TEXT -48 296 Left 2 !.ac dec 1000 1 2meg
TEXT 688 -72 Left 2 !.inc "TL084.301"
