Version 4
SHEET 1 1260 680
WIRE 368 -256 336 -256
WIRE 464 -256 448 -256
WIRE 336 -160 336 -256
WIRE 336 -160 176 -160
WIRE 368 -160 336 -160
WIRE 464 -160 464 -256
WIRE 464 -160 448 -160
WIRE 560 -160 464 -160
WIRE 816 -160 640 -160
WIRE 176 -128 176 -160
WIRE 464 -64 464 -160
WIRE 464 -64 416 -64
WIRE 208 -16 192 -16
WIRE 320 -16 288 -16
WIRE 416 -16 416 -64
WIRE 416 -16 400 -16
WIRE -176 32 -176 16
WIRE 192 32 192 -16
WIRE 192 32 64 32
WIRE 416 32 416 -16
WIRE 464 32 416 32
WIRE 64 48 64 32
WIRE 528 80 528 64
WIRE 464 96 464 32
WIRE 496 96 464 96
WIRE 816 112 816 -160
WIRE 816 112 560 112
WIRE 496 128 384 128
WIRE -176 144 -176 112
WIRE -128 144 -176 144
WIRE 64 144 64 128
WIRE 816 144 816 112
WIRE 192 160 192 32
WIRE 288 160 272 160
WIRE 384 160 384 128
WIRE 384 160 368 160
WIRE 528 176 528 144
WIRE -176 192 -176 144
WIRE 384 240 384 160
WIRE 464 240 384 240
WIRE 544 240 528 240
WIRE 672 240 608 240
WIRE 816 240 816 224
WIRE 816 240 672 240
WIRE 816 288 816 240
WIRE 384 320 320 320
WIRE -176 336 -176 272
WIRE 320 416 320 400
WIRE 816 432 816 416
WIRE 192 464 192 160
WIRE 400 464 192 464
WIRE 672 464 672 240
WIRE 672 464 464 464
FLAG -128 144 0
FLAG -176 16 vcc
FLAG -176 336 -vcc
FLAG 528 64 vcc
FLAG 528 176 -vcc
FLAG 176 -128 0
FLAG 816 432 0
FLAG 64 144 0
FLAG 320 416 0
SYMBOL Opamps\\opamp2 528 48 R0
SYMATTR InstName U1
SYMATTR Value tl084
SYMBOL voltage -176 16 R0
WINDOW 123 0 0 Left 0
WINDOW 39 0 0 Left 0
SYMATTR InstName V2
SYMATTR Value 15
SYMBOL voltage -176 176 R0
WINDOW 0 24 96 Left 2
WINDOW 3 24 16 Left 2
WINDOW 123 0 0 Left 0
WINDOW 39 0 0 Left 0
SYMATTR InstName V3
SYMATTR Value 15
SYMBOL res 304 -32 R90
WINDOW 0 0 56 VBottom 2
WINDOW 3 32 56 VTop 2
SYMATTR InstName R2
SYMATTR Value 8.2k
SYMBOL res 656 -176 R90
WINDOW 0 0 56 VBottom 2
WINDOW 3 32 56 VTop 2
SYMATTR InstName R3
SYMATTR Value 1k
SYMBOL res 464 -176 R90
WINDOW 0 0 56 VBottom 2
WINDOW 3 32 56 VTop 2
SYMATTR InstName R1
SYMATTR Value 470
SYMBOL res 800 128 R0
SYMATTR InstName R6
SYMATTR Value {R6}
SYMBOL res 368 224 R0
SYMATTR InstName R4
SYMATTR Value 15k
SYMBOL cap 608 224 R90
WINDOW 0 0 32 VBottom 2
WINDOW 3 32 32 VTop 2
SYMATTR InstName C1
SYMATTR Value 560p
SYMBOL cap 832 352 R180
WINDOW 0 24 56 Left 2
WINDOW 3 24 8 Left 2
SYMATTR InstName C2
SYMATTR Value 47p
SYMBOL cap 400 480 R270
WINDOW 0 32 32 VTop 2
WINDOW 3 0 32 VBottom 2
SYMATTR InstName C3
SYMATTR Value 15p
SYMBOL voltage 64 32 R0
WINDOW 123 0 0 Left 0
WINDOW 39 0 0 Left 0
SYMATTR InstName ac
SYMATTR Value ac
SYMBOL res 464 -272 R90
WINDOW 0 0 56 VBottom 2
WINDOW 3 32 56 VTop 2
SYMATTR InstName R7
SYMATTR Value 1.2k
SYMBOL res 416 -32 R90
WINDOW 0 0 56 VBottom 2
WINDOW 3 32 56 VTop 2
SYMATTR InstName R8
SYMATTR Value 82
SYMBOL res 304 304 R0
SYMATTR InstName R9
SYMATTR Value 27k
SYMBOL res 288 144 R90
WINDOW 0 0 56 VBottom 2
WINDOW 3 32 56 VTop 2
SYMATTR InstName R5
SYMATTR Value 120k
SYMBOL res 384 144 R90
WINDOW 0 0 56 VBottom 2
WINDOW 3 32 56 VTop 2
SYMATTR InstName R10
SYMATTR Value 1Meg
SYMBOL cap 528 224 R90
WINDOW 0 0 32 VBottom 2
WINDOW 3 32 32 VTop 2
SYMATTR InstName C4
SYMATTR Value 68p
SYMBOL cap 800 352 R0
SYMATTR InstName C5
SYMATTR Value 1.5n
TEXT -208 432 Left 2 !.ac dec 10000 100 2Meg
TEXT -312 -168 Left 2 !.param parama=0.01
TEXT -312 -136 Left 2 !.param paramb=0.1
TEXT -312 -104 Left 2 !;.step param run 1 50 1
TEXT -40 -56 Left 2 !.inc "../TL084.301"
TEXT 920 80 Left 2 !.step param R6 90k 100k 100
