Version 4
SHEET 1 1300 680
WIRE 736 -48 736 -96
WIRE 832 -48 816 -48
WIRE 912 -48 912 -96
WIRE 816 -16 816 -48
WIRE 128 48 96 48
WIRE 224 48 208 48
WIRE 720 48 560 48
WIRE 1200 48 1040 48
WIRE 96 144 96 48
WIRE 96 144 64 144
WIRE 128 144 96 144
WIRE 560 144 560 48
WIRE 624 144 560 144
WIRE 1040 144 1040 48
WIRE 1104 144 1040 144
WIRE 224 160 224 48
WIRE 224 160 192 160
WIRE 336 160 224 160
WIRE 720 160 720 48
WIRE 720 160 688 160
WIRE 816 160 720 160
WIRE 1200 160 1200 48
WIRE 1200 160 1168 160
WIRE 128 176 64 176
WIRE 624 176 560 176
WIRE 1104 176 1040 176
WIRE -128 256 -160 256
WIRE 64 256 64 176
WIRE 64 256 32 256
WIRE 336 256 336 160
WIRE 368 256 336 256
WIRE 560 256 560 176
WIRE 560 256 528 256
WIRE 816 256 816 160
WIRE 848 256 816 256
WIRE 1040 256 1040 176
WIRE 1040 256 1008 256
WIRE -48 400 -48 320
WIRE 224 400 224 160
WIRE 224 400 -48 400
WIRE 448 400 448 320
WIRE 720 400 720 160
WIRE 720 400 448 400
WIRE 928 400 928 320
WIRE 1200 400 1200 160
WIRE 1200 400 928 400
FLAG -16 144 0
FLAG 32 320 0
FLAG 528 320 0
FLAG 1008 320 0
FLAG 928 176 0
FLAG 736 -96 vcc
FLAG 656 128 vcc
FLAG 160 128 vcc
FLAG 1136 128 vcc
FLAG 912 -96 vee
FLAG 656 192 vee
FLAG 160 192 vee
FLAG 1136 192 vee
FLAG 816 -16 0
FLAG -160 336 0
SYMBOL res 80 128 R90
WINDOW 0 0 56 VBottom 2
WINDOW 3 32 56 VTop 2
SYMATTR InstName R3
SYMATTR Value 603.9
SYMBOL res 224 32 R90
WINDOW 0 0 56 VBottom 2
WINDOW 3 32 56 VTop 2
SYMATTR InstName R4
SYMATTR Value 470
SYMBOL res -32 240 R90
WINDOW 0 0 56 VBottom 2
WINDOW 3 32 56 VTop 2
SYMATTR InstName R1
SYMATTR Value 50k
SYMBOL cap -64 256 R0
SYMATTR InstName C1
SYMATTR Value 766.98p
SYMBOL res 48 240 R90
WINDOW 0 0 56 VBottom 2
WINDOW 3 32 56 VTop 2
SYMATTR InstName R2
SYMATTR Value 50k
SYMBOL cap 16 256 R0
SYMATTR InstName C2
SYMATTR Value 1.26n
SYMBOL res 464 240 R90
WINDOW 0 0 56 VBottom 2
WINDOW 3 32 56 VTop 2
SYMATTR InstName R7
SYMATTR Value 4k7
SYMBOL cap 432 256 R0
SYMATTR InstName C3
SYMATTR Value 12.15n
SYMBOL res 544 240 R90
WINDOW 0 0 56 VBottom 2
WINDOW 3 32 56 VTop 2
SYMATTR InstName R8
SYMATTR Value 4k7
SYMBOL cap 512 256 R0
SYMATTR InstName C4
SYMATTR Value 8.13n
SYMBOL res 944 240 R90
WINDOW 0 0 56 VBottom 2
WINDOW 3 32 56 VTop 2
SYMATTR InstName R11
SYMATTR Value 2.13k
SYMBOL cap 912 256 R0
SYMATTR InstName C5
SYMATTR Value 70.67n
SYMBOL res 1024 240 R90
WINDOW 0 0 56 VBottom 2
WINDOW 3 32 56 VTop 2
SYMATTR InstName R12
SYMATTR Value 1k2
SYMBOL cap 992 256 R0
SYMATTR InstName C6
SYMATTR Value 16.87n
SYMBOL res 912 160 R0
SYMATTR InstName R5
SYMATTR Value 2.74k
SYMBOL voltage 720 -48 R270
WINDOW 0 32 56 VTop 2
WINDOW 3 -32 56 VBottom 2
WINDOW 123 0 0 Left 0
WINDOW 39 0 0 Left 0
SYMATTR InstName V1
SYMATTR Value 15
SYMBOL voltage 816 -48 R270
WINDOW 0 32 56 VTop 2
WINDOW 3 -32 56 VBottom 2
WINDOW 123 0 0 Left 0
WINDOW 39 0 0 Left 0
SYMATTR InstName V2
SYMATTR Value 15
SYMBOL Opamps\\opamp2 160 96 R0
SYMATTR InstName U1
SYMATTR Value TL084
SYMBOL Opamps\\opamp2 656 96 R0
SYMATTR InstName U2
SYMATTR Value TL084
SYMBOL Opamps\\opamp2 1136 96 R0
SYMATTR InstName U3
SYMATTR Value TL084
SYMBOL voltage -160 240 R0
SYMATTR InstName V3
SYMATTR Value AC 1
TEXT -192 408 Left 2 !.ac dec 10000 100 100000
TEXT -304 -24 Left 2 !.include C:\\Program Files\\LTC\\LTspiceXVII\\lib\\sub\\TL084.301
