Version 4
SHEET 1 880 680
WIRE 240 -96 176 -96
WIRE 368 -96 320 -96
WIRE 224 16 176 16
WIRE 368 16 368 -96
WIRE 368 16 288 16
WIRE -80 176 -112 176
WIRE 32 176 0 176
WIRE 64 176 32 176
WIRE 176 176 176 16
WIRE 176 176 144 176
WIRE 224 176 176 176
WIRE 368 192 368 16
WIRE 368 192 288 192
WIRE 464 192 368 192
WIRE 224 208 176 208
WIRE -112 240 -112 176
WIRE 176 304 176 288
FLAG -448 384 0
FLAG -576 384 0
FLAG -576 304 V+
FLAG -448 304 V-
FLAG 256 160 V+
FLAG 256 224 V-
FLAG 176 304 0
FLAG -112 240 0
FLAG 464 192 OUT
FLAG 32 176 IN
SYMBOL Opamps\\opamp2 256 128 R0
WINDOW 3 93 105 Left 2
SYMATTR InstName U1
SYMATTR Value LM833#0
SYMBOL voltage -576 288 R0
WINDOW 123 0 0 Left 0
WINDOW 39 0 0 Left 0
SYMATTR InstName V1
SYMATTR Value 15
SYMBOL voltage -448 288 R0
WINDOW 123 0 0 Left 0
WINDOW 39 0 0 Left 0
SYMATTR InstName V2
SYMATTR Value -15
SYMBOL voltage 16 176 R90
WINDOW 0 -32 56 VBottom 2
WINDOW 3 88 56 VTop 2
WINDOW 123 60 56 VTop 2
WINDOW 39 0 0 Left 0
SYMATTR InstName V3
SYMATTR Value SINE(0 1 1k)
SYMATTR Value2 AC 1
SYMBOL cap 288 0 R90
WINDOW 0 0 32 VBottom 2
WINDOW 3 32 32 VTop 2
SYMATTR InstName C1
SYMATTR Value 3,9n
SYMBOL res 160 160 R90
WINDOW 0 0 56 VBottom 2
WINDOW 3 32 56 VTop 2
SYMATTR InstName Rint
SYMATTR Value 27k
SYMBOL res 336 -112 R90
WINDOW 0 0 56 VBottom 2
WINDOW 3 32 56 VTop 2
SYMATTR InstName Rcomp
SYMATTR Value 270k
SYMBOL res 160 192 R0
SYMATTR InstName Rcom
SYMATTR Value 27k
TEXT 288 320 Left 2 !.include LM833.ckt
TEXT -136 376 Left 2 !.ac dec 100 0.00001 1Meg
