Version 4
SHEET 1 880 680
WIRE 112 112 80 112
WIRE 208 112 192 112
WIRE 336 112 288 112
WIRE 336 128 336 112
WIRE 80 224 80 192
WIRE 336 224 336 192
FLAG 336 224 0
FLAG 80 224 0
SYMBOL res 208 96 R90
WINDOW 0 0 56 VBottom 2
WINDOW 3 32 56 VTop 2
SYMATTR InstName R1
SYMATTR Value 100
SYMBOL cap 320 128 R0
SYMATTR InstName C1
SYMATTR Value 5.1n
SYMBOL voltage 80 96 R0
WINDOW 123 0 0 Left 0
WINDOW 39 0 0 Left 0
SYMATTR InstName V1
SYMATTR Value ac
SYMBOL res 304 96 R90
WINDOW 0 0 56 VBottom 2
WINDOW 3 32 56 VTop 2
SYMATTR InstName R2
SYMATTR Value 560
TEXT 48 248 Left 2 !.ac dec 100 1 1meg
