Version 4
SHEET 1 1556 920
WIRE -32 -16 -96 -16
WIRE 176 -16 -32 -16
WIRE 432 -16 176 -16
WIRE 528 -16 432 -16
WIRE 176 16 176 -16
WIRE 528 96 528 64
WIRE 176 112 176 96
WIRE 288 112 176 112
WIRE 176 128 176 112
WIRE 288 128 288 112
WIRE 96 208 96 112
WIRE 112 208 96 208
WIRE 352 272 352 224
WIRE 400 272 352 272
WIRE 416 272 416 224
WIRE 432 272 432 -16
WIRE 0 288 -96 288
WIRE 16 288 0 288
WIRE 112 288 112 208
WIRE 112 288 80 288
WIRE 240 288 112 288
WIRE 336 288 240 288
WIRE 384 288 352 288
WIRE 336 304 336 288
WIRE 368 304 336 304
WIRE 528 304 448 304
WIRE 560 304 528 304
WIRE 592 304 560 304
WIRE 832 304 736 304
WIRE 992 304 912 304
WIRE 1024 304 992 304
WIRE 240 320 208 320
WIRE 352 320 352 288
WIRE 352 320 320 320
WIRE 368 320 368 304
WIRE 384 320 368 320
WIRE 1104 384 1024 384
WIRE 352 400 352 320
WIRE 400 400 352 400
WIRE 528 400 528 304
WIRE 528 400 480 400
WIRE 352 480 352 400
WIRE 416 480 352 480
WIRE 528 480 528 400
WIRE 528 480 480 480
WIRE 352 544 352 480
WIRE 416 544 352 544
WIRE 528 544 528 480
WIRE 528 544 480 544
FLAG -32 48 0
FLAG 1024 464 0
FLAG 1104 384 Vo_tot
FLAG -96 368 0
FLAG -96 64 0
FLAG 0 368 0
FLAG 416 336 0
FLAG 208 384 0
FLAG 912 368 0
FLAG -96 288 Vin
FLAG 240 288 Vi_op
FLAG 560 304 Vo_op
FLAG 176 208 0
FLAG 288 192 0
FLAG 528 160 0
FLAG 992 304 Vo
SYMBOL cap 80 272 R90
WINDOW 0 -20 32 VBottom 2
WINDOW 3 -30 32 VTop 2
SYMATTR InstName C1
SYMATTR Value 330n
SYMBOL cap -48 -16 R0
WINDOW 0 44 19 Left 2
WINDOW 3 47 43 Left 2
SYMATTR InstName C2
SYMATTR Value 100µ
SYMBOL res 160 0 R0
SYMATTR InstName R2
SYMATTR Value 10k
SYMBOL res 336 304 R90
WINDOW 0 0 56 VBottom 2
WINDOW 3 32 56 VTop 2
SYMATTR InstName R4
SYMATTR Value 1k
SYMBOL res 496 384 R90
WINDOW 0 0 56 VBottom 2
WINDOW 3 32 56 VTop 2
SYMATTR InstName R5
SYMATTR Value 50k
SYMBOL cap 656 288 R90
WINDOW 0 0 32 VBottom 2
WINDOW 3 32 32 VTop 2
SYMATTR InstName C4
SYMATTR Value 10µ
SYMBOL res 752 288 R90
WINDOW 0 0 56 VBottom 2
WINDOW 3 32 56 VTop 2
SYMATTR InstName R6
SYMATTR Value 1k
SYMBOL res 1008 288 R0
SYMATTR InstName R8
SYMATTR Value 5k
SYMBOL res 1008 368 R0
SYMATTR InstName R9
SYMATTR Value 5k
SYMBOL voltage -96 -32 R0
WINDOW 3 -55 54 Left 2
WINDOW 123 0 0 Left 0
WINDOW 39 0 0 Left 0
WINDOW 0 -62 23 Left 2
SYMATTR Value 9
SYMATTR InstName V1
SYMBOL voltage -96 272 R0
WINDOW 3 -231 52 Left 2
WINDOW 123 -85 81 Left 2
WINDOW 39 0 0 Left 0
WINDOW 0 -69 24 Left 2
SYMATTR Value SINE(0 100m 1k)
SYMATTR Value2 AC 1 0
SYMATTR InstName V2
SYMBOL res -16 272 R0
WINDOW 0 38 53 Left 2
SYMATTR InstName R1
SYMATTR Value 1Meg
SYMBOL cap 192 320 R0
WINDOW 0 36 36 Left 2
SYMATTR InstName C6
SYMATTR Value 1.56µ
SYMBOL res 928 288 R90
WINDOW 0 -32 56 VBottom 2
WINDOW 3 -30 56 VTop 2
SYMATTR InstName R7
SYMATTR Value 5k
SYMBOL cap 896 304 R0
WINDOW 0 45 22 Left 2
WINDOW 3 37 47 Left 2
SYMATTR InstName C5
SYMATTR Value 10n
SYMBOL Opamps\\LM308 416 240 R0
SYMATTR InstName U2
SYMBOL cap 416 208 R90
WINDOW 0 0 32 VBottom 2
WINDOW 3 32 32 VTop 2
SYMATTR InstName C3
SYMATTR Value 33p
SYMBOL res 160 112 R0
SYMATTR InstName R10
SYMATTR Value 10k
SYMBOL res 192 96 R90
WINDOW 0 0 56 VBottom 2
WINDOW 3 32 56 VTop 2
SYMATTR InstName R11
SYMATTR Value 1Meg
SYMBOL cap 272 128 R0
SYMATTR InstName C7
SYMATTR Value 10p
SYMBOL res 512 -32 R0
SYMATTR InstName R3
SYMATTR Value 1k
SYMBOL LED 512 96 R0
SYMATTR InstName D3
SYMATTR Value TLSV5100RED
SYMATTR Description Diode
SYMATTR Type diode
SYMBOL diode 480 464 R90
WINDOW 0 0 32 VBottom 2
WINDOW 3 32 32 VTop 2
SYMATTR InstName D1
SYMATTR Value 1N4148
SYMBOL diode 416 560 R270
WINDOW 0 32 32 VTop 2
WINDOW 3 0 32 VBottom 2
SYMATTR InstName D2
SYMATTR Value 1N4148
TEXT -88 488 Left 2 !.tran 10m
TEXT -88 512 Left 2 !.four 1kHz V(Vo)
TEXT -88 536 Left 2 !;ac dec 10 20 200k
