Version 4
SHEET 1 1556 920
WIRE -32 144 -96 144
WIRE 112 144 -32 144
WIRE 432 144 112 144
WIRE 112 176 112 144
WIRE 352 272 352 224
WIRE 400 272 352 272
WIRE 416 272 416 224
WIRE 432 272 432 144
WIRE 0 288 -96 288
WIRE 16 288 0 288
WIRE 112 288 112 256
WIRE 112 288 80 288
WIRE 240 288 112 288
WIRE 336 288 240 288
WIRE 384 288 352 288
WIRE 336 304 336 288
WIRE 368 304 336 304
WIRE 528 304 448 304
WIRE 560 304 528 304
WIRE 592 304 560 304
WIRE 768 304 736 304
WIRE 832 304 768 304
WIRE 1008 304 912 304
WIRE 1024 304 1008 304
WIRE 240 320 208 320
WIRE 352 320 352 288
WIRE 352 320 320 320
WIRE 368 320 368 304
WIRE 384 320 368 320
WIRE 768 320 768 304
WIRE 832 320 832 304
WIRE 1104 384 1024 384
WIRE 352 400 352 320
WIRE 400 400 352 400
WIRE 528 400 528 304
WIRE 528 400 480 400
FLAG -32 208 0
FLAG 112 368 0
FLAG 768 384 0
FLAG 832 384 0
FLAG 1024 464 0
FLAG 1104 384 Vo_tot
FLAG -96 368 0
FLAG -96 224 0
FLAG 0 368 0
FLAG 416 336 0
FLAG 208 384 0
FLAG 912 368 0
FLAG -96 288 Vin
FLAG 240 288 Vi_op
FLAG 560 304 Vo_op
FLAG 1008 304 Vo
SYMBOL cap 80 272 R90
WINDOW 0 -20 32 VBottom 2
WINDOW 3 -30 32 VTop 2
SYMATTR InstName C1
SYMATTR Value 15n
SYMBOL cap -48 144 R0
WINDOW 0 44 19 Left 2
WINDOW 3 47 43 Left 2
SYMATTR InstName C2
SYMATTR Value 33µ
SYMBOL res 96 160 R0
SYMATTR InstName R2
SYMATTR Value 1Meg
SYMBOL res 96 272 R0
WINDOW 0 36 50 Left 2
SYMATTR InstName R3
SYMATTR Value 1Meg
SYMBOL res 336 304 R90
WINDOW 0 0 56 VBottom 2
WINDOW 3 32 56 VTop 2
SYMATTR InstName R4
SYMATTR Value 1k
SYMBOL res 496 384 R90
WINDOW 0 0 56 VBottom 2
WINDOW 3 32 56 VTop 2
SYMATTR InstName R5
SYMATTR Value 50k
SYMBOL cap 656 288 R90
WINDOW 0 0 32 VBottom 2
WINDOW 3 32 32 VTop 2
SYMATTR InstName C4
SYMATTR Value 1µ
SYMBOL res 752 288 R90
WINDOW 0 0 56 VBottom 2
WINDOW 3 32 56 VTop 2
SYMATTR InstName R6
SYMATTR Value 6k8
SYMBOL diode 752 320 R0
WINDOW 0 -46 71 Left 2
WINDOW 3 73 98 Left 2
SYMATTR InstName D1
SYMATTR Value 1N4148
SYMBOL diode 848 384 R180
WINDOW 0 -42 -8 Left 2
WINDOW 3 62 -35 Left 2
SYMATTR InstName D2
SYMATTR Value 1N4148
SYMBOL res 1008 288 R0
SYMATTR InstName R8
SYMATTR Value 10k
SYMBOL res 1008 368 R0
SYMATTR InstName R9
SYMATTR Value 10k
SYMBOL voltage -96 128 R0
WINDOW 3 -55 54 Left 2
WINDOW 123 0 0 Left 0
WINDOW 39 0 0 Left 0
WINDOW 0 -62 23 Left 2
SYMATTR Value 9
SYMATTR InstName V1
SYMBOL voltage -96 272 R0
WINDOW 3 -231 52 Left 2
WINDOW 123 -85 81 Left 2
WINDOW 39 0 0 Left 0
WINDOW 0 -69 24 Left 2
SYMATTR Value SINE(0 100m 1k)
SYMATTR Value2 AC 1 0
SYMATTR InstName V2
SYMBOL res -16 272 R0
WINDOW 0 38 53 Left 2
SYMATTR InstName R1
SYMATTR Value 2Meg
SYMBOL cap 192 320 R0
WINDOW 0 36 36 Left 2
SYMATTR InstName C6
SYMATTR Value 320n
SYMBOL res 928 288 R90
WINDOW 0 -32 56 VBottom 2
WINDOW 3 -30 56 VTop 2
SYMATTR InstName R7
SYMATTR Value 6k8
SYMBOL cap 896 304 R0
WINDOW 0 45 22 Left 2
WINDOW 3 37 47 Left 2
SYMATTR InstName C5
SYMATTR Value 1.5n
SYMBOL Opamps\\LM308 416 240 R0
SYMATTR InstName U2
SYMBOL cap 416 208 R90
WINDOW 0 0 32 VBottom 2
WINDOW 3 32 32 VTop 2
SYMATTR InstName C3
SYMATTR Value 300p
TEXT -88 488 Left 2 !.tran 10m
TEXT -88 512 Left 2 !.four 1kHz V(Vo)
TEXT -88 536 Left 2 !;ac dec 10 20 200k
