Version 4
SHEET 1 2448 680
WIRE 496 -208 368 -208
WIRE 624 -208 576 -208
WIRE 480 -96 480 -128
WIRE 208 -80 144 -80
WIRE 368 -80 368 -208
WIRE 368 -80 288 -80
WIRE 448 -80 368 -80
WIRE 848 -80 848 -128
WIRE 624 -64 624 -208
WIRE 624 -64 512 -64
WIRE 816 -64 624 -64
WIRE 448 -48 368 -48
WIRE 1008 -48 880 -48
WIRE 1104 -48 1008 -48
WIRE 768 -32 704 -32
WIRE 816 -32 768 -32
WIRE 480 16 480 -32
WIRE 848 16 848 -16
WIRE -192 64 -192 16
WIRE -64 64 -64 16
WIRE 704 64 704 -32
WIRE 1360 64 1360 32
WIRE 1472 64 1472 32
WIRE 768 80 768 -32
WIRE 896 80 768 80
WIRE 1008 80 1008 -48
WIRE 1008 80 976 80
WIRE 208 128 144 128
WIRE 368 128 368 -48
WIRE 368 128 288 128
WIRE 368 176 368 128
WIRE 1360 192 1360 144
WIRE 1472 192 1472 144
WIRE -192 208 -192 144
WIRE -64 208 -64 144
WIRE 704 224 704 144
WIRE 368 320 368 256
FLAG 144 128 Vlm35
FLAG 368 320 0
FLAG 1104 -48 Vo
FLAG 480 -128 Vcc
FLAG 480 16 -Vcc
FLAG 1472 32 -Vcc
FLAG 1360 32 Vcc
FLAG 1360 192 0
FLAG 1472 192 0
FLAG -192 208 0
FLAG -192 16 Vlm35
FLAG 848 16 Vcc
FLAG 848 -128 -Vcc
FLAG 704 224 0
FLAG -64 208 0
FLAG -64 16 V1
FLAG 144 -80 V1
SYMBOL res 304 -96 R90
WINDOW 0 0 56 VBottom 2
WINDOW 3 32 56 VTop 2
SYMATTR InstName R1
SYMATTR Value 2k
SYMBOL res 304 112 R90
WINDOW 0 0 56 VBottom 2
WINDOW 3 32 56 VTop 2
SYMATTR InstName R2
SYMATTR Value 3.5k
SYMBOL res 384 272 R180
WINDOW 0 36 76 Left 2
WINDOW 3 36 40 Left 2
SYMATTR InstName R4
SYMATTR Value 4.12k
SYMBOL voltage 1360 48 R0
SYMATTR InstName V1
SYMATTR Value 10
SYMBOL voltage 1472 48 R0
SYMATTR InstName V2
SYMATTR Value -10
SYMBOL voltage -192 48 R0
WINDOW 123 0 0 Left 0
WINDOW 39 0 0 Left 0
WINDOW 3 24 44 Left 2
SYMATTR Value ""
SYMATTR InstName V3
SYMBOL res 592 -224 R90
WINDOW 0 0 56 VBottom 2
WINDOW 3 32 56 VTop 2
SYMATTR InstName R3
SYMATTR Value 35k
SYMBOL Opamps\\opamp2 480 -128 R0
SYMATTR InstName U1
SYMATTR Value TL072
SYMBOL Opamps\\opamp2 848 16 M180
SYMATTR InstName U2
SYMATTR Value TL072
SYMBOL res 688 48 R0
SYMATTR InstName R5
SYMATTR Value 1k
SYMBOL res 992 64 R90
WINDOW 0 0 56 VBottom 2
WINDOW 3 32 56 VTop 2
SYMATTR InstName R6
SYMATTR Value 4k
SYMBOL voltage -64 48 R0
WINDOW 123 0 0 Left 0
WINDOW 39 0 0 Left 0
WINDOW 3 24 44 Left 2
SYMATTR Value 0.2
SYMATTR InstName V4
TEXT 1048 384 Left 2 !.inc ".\\TL072.txt"
TEXT 1048 352 Left 2 !;.dc V3 0.35 0.45 0.01
TEXT 1056 312 Left 2 !.dc V3 0 0.75 0.01
