Version 4
SHEET 1 3576 680
WIRE 2528 -1184 2480 -1184
WIRE 2688 -1184 2608 -1184
WIRE 1520 -1120 1344 -1120
WIRE 1760 -1120 1584 -1120
WIRE 1200 -1056 1040 -1056
WIRE 1216 -1056 1200 -1056
WIRE 1344 -1056 1344 -1120
WIRE 1344 -1056 1296 -1056
WIRE 1376 -1056 1344 -1056
WIRE 1552 -1056 1456 -1056
WIRE 1648 -1056 1552 -1056
WIRE 1760 -1056 1760 -1120
WIRE 1760 -1056 1728 -1056
WIRE 1904 -1056 1760 -1056
WIRE 2048 -1056 1984 -1056
WIRE 2336 -1056 2048 -1056
WIRE 2480 -1056 2480 -1184
WIRE 2480 -1056 2416 -1056
WIRE 2544 -1056 2480 -1056
WIRE 2688 -1040 2688 -1184
WIRE 2688 -1040 2608 -1040
WIRE 2736 -1040 2688 -1040
WIRE 2544 -1024 2464 -1024
WIRE 1552 -976 1552 -1056
WIRE 2464 -944 2464 -1024
WIRE 1200 -816 1200 -1056
WIRE 1376 -816 1200 -816
WIRE 1552 -816 1552 -912
WIRE 1552 -816 1456 -816
WIRE 1920 -816 1552 -816
WIRE 2048 -816 2048 -1056
WIRE 2048 -816 2000 -816
WIRE 3024 -800 3024 -816
WIRE 3136 -800 3024 -800
WIRE 3312 -800 3312 -816
WIRE 3424 -800 3312 -800
WIRE 2832 -768 2832 -816
WIRE 3024 -768 3024 -800
WIRE 3136 -768 3136 -800
WIRE 3312 -768 3312 -800
WIRE 3424 -768 3424 -800
WIRE 1552 -736 1552 -816
WIRE 1680 -736 1552 -736
WIRE 2048 -720 2048 -816
WIRE 2048 -720 1744 -720
WIRE 1680 -704 1616 -704
WIRE 3024 -656 3024 -688
WIRE 3136 -656 3136 -704
WIRE 3136 -656 3024 -656
WIRE 3312 -656 3312 -688
WIRE 3424 -656 3424 -704
WIRE 3424 -656 3312 -656
WIRE 1616 -640 1616 -704
WIRE 2832 -640 2832 -688
WIRE 3024 -640 3024 -656
WIRE 3312 -640 3312 -656
WIRE 1520 -592 1344 -592
WIRE 1760 -592 1584 -592
WIRE 1200 -528 1040 -528
WIRE 1216 -528 1200 -528
WIRE 1344 -528 1344 -592
WIRE 1344 -528 1296 -528
WIRE 1376 -528 1344 -528
WIRE 1552 -528 1456 -528
WIRE 1648 -528 1552 -528
WIRE 1760 -528 1760 -592
WIRE 1760 -528 1728 -528
WIRE 1904 -528 1760 -528
WIRE 2048 -528 1984 -528
WIRE 1552 -448 1552 -528
WIRE 1200 -320 1200 -528
WIRE 1344 -320 1200 -320
WIRE 1552 -320 1552 -384
WIRE 1552 -320 1424 -320
WIRE 1920 -320 1552 -320
WIRE 2048 -320 2048 -528
WIRE 2048 -320 2000 -320
WIRE 2512 -320 2048 -320
WIRE 1552 -208 1552 -320
WIRE 1680 -208 1552 -208
WIRE 2048 -192 2048 -320
WIRE 2048 -192 1744 -192
WIRE 1680 -176 1616 -176
WIRE 1616 -112 1616 -176
WIRE 1520 -16 1344 -16
WIRE 1760 -16 1584 -16
WIRE 1216 48 1200 48
WIRE 1344 48 1344 -16
WIRE 1344 48 1296 48
WIRE 1376 48 1344 48
WIRE 1552 48 1456 48
WIRE 1648 48 1552 48
WIRE 1760 48 1760 -16
WIRE 1760 48 1728 48
WIRE 1920 48 1760 48
WIRE 2048 48 2000 48
WIRE 2336 48 2048 48
WIRE 1552 80 1552 48
WIRE 1200 240 1200 48
WIRE 1200 240 1040 240
WIRE 1376 240 1200 240
WIRE 1552 240 1552 144
WIRE 1552 240 1456 240
WIRE 1920 240 1552 240
WIRE 2048 240 2048 48
WIRE 2048 240 2000 240
WIRE 1552 368 1552 240
WIRE 1680 368 1552 368
WIRE 2048 384 2048 240
WIRE 2048 384 1744 384
WIRE 1680 400 1616 400
WIRE 1616 464 1616 400
FLAG 2832 -640 0
FLAG 3024 -640 0
FLAG 3312 -640 0
FLAG 1616 464 0
FLAG 2832 -816 Vin
FLAG 2736 -1040 Vout
FLAG 3024 -816 Vcc
FLAG 1712 352 Vcc
FLAG 3312 -816 -Vcc
FLAG 1712 416 -Vcc
FLAG 2464 -944 0
FLAG 2576 -1072 Vcc
FLAG 2576 -1008 -Vcc
FLAG 1616 -112 0
FLAG 1712 -224 Vcc
FLAG 1712 -160 -Vcc
FLAG 1616 -640 0
FLAG 1712 -752 Vcc
FLAG 1712 -688 -Vcc
FLAG 1040 240 Vin
FLAG 1040 -528 VL
FLAG 2336 48 VL
FLAG 2512 -320 VM
FLAG 1040 -1056 VM
SYMBOL res 1472 32 R90
WINDOW 0 0 56 VBottom 2
WINDOW 3 32 56 VTop 2
SYMATTR InstName R2p
SYMATTR Value 0
SYMBOL res 1744 32 R90
WINDOW 0 0 56 VBottom 2
WINDOW 3 32 56 VTop 2
SYMATTR InstName R2pp
SYMATTR Value 100k
SYMBOL res 1472 224 R90
WINDOW 0 0 56 VBottom 2
WINDOW 3 32 56 VTop 2
SYMATTR InstName R3
SYMATTR Value {mc(1Mega,r3b)}
SYMATTR SpiceLine tol=5
SYMBOL res 2016 224 R90
WINDOW 0 0 56 VBottom 2
WINDOW 3 32 56 VTop 2
SYMATTR InstName R3p
SYMATTR Value {mc(1Mega,r3bp)}
SYMATTR SpiceLine tol=5
SYMBOL cap 1536 80 R0
SYMATTR InstName C2
SYMATTR Value {mc(6.8n,c2b)}
SYMBOL cap 1584 -32 R90
WINDOW 0 0 32 VBottom 2
WINDOW 3 32 32 VTop 2
SYMATTR InstName C1
SYMATTR Value {mc(68n,c1b)}
SYMBOL res 1312 32 R90
WINDOW 0 0 56 VBottom 2
WINDOW 3 32 56 VTop 2
SYMATTR InstName R1
SYMATTR Value {mc(10k,r1b)}
SYMATTR SpiceLine tol=1
SYMBOL res 2016 32 R90
WINDOW 0 0 56 VBottom 2
WINDOW 3 32 56 VTop 2
SYMATTR InstName R1p
SYMATTR Value {mc(10k,r1bp)}
SYMATTR SpiceLine tol=1
SYMBOL voltage 2832 -784 R0
WINDOW 123 24 124 Left 2
WINDOW 39 0 0 Left 0
SYMATTR Value2 AC 1
SYMATTR InstName V1
SYMATTR Value ""
SYMBOL voltage 3024 -784 R0
SYMATTR InstName V2
SYMATTR Value 12
SYMBOL voltage 3312 -784 R0
SYMATTR InstName V3
SYMATTR Value -12
SYMBOL res 1472 -544 R90
WINDOW 0 0 56 VBottom 2
WINDOW 3 32 56 VTop 2
SYMATTR InstName R4p
SYMATTR Value 0
SYMBOL res 1744 -544 R90
WINDOW 0 0 56 VBottom 2
WINDOW 3 32 56 VTop 2
SYMATTR InstName R4pp
SYMATTR Value 10k
SYMBOL cap 1584 -608 R90
WINDOW 0 0 32 VBottom 2
WINDOW 3 32 32 VTop 2
SYMATTR InstName C3
SYMATTR Value {mc(47n,c1m)}
SYMBOL res 1312 -544 R90
WINDOW 0 0 56 VBottom 2
WINDOW 3 32 56 VTop 2
SYMATTR InstName R5
SYMATTR Value {mc(1k,r1m)}
SYMATTR SpiceLine tol=1
SYMBOL res 2000 -544 R90
WINDOW 0 0 56 VBottom 2
WINDOW 3 32 56 VTop 2
SYMATTR InstName R5p
SYMATTR Value {mc(1k,r1mp)}
SYMATTR SpiceLine tol=1
SYMBOL res 1472 -1072 R90
WINDOW 0 0 56 VBottom 2
WINDOW 3 32 56 VTop 2
SYMATTR InstName R6p
SYMATTR Value 0.00001
SYMATTR SpiceLine tol=1
SYMBOL res 1744 -1072 R90
WINDOW 0 0 56 VBottom 2
WINDOW 3 32 56 VTop 2
SYMATTR InstName R6pp
SYMATTR Value 50k
SYMBOL cap 1584 -1136 R90
WINDOW 0 0 32 VBottom 2
WINDOW 3 32 32 VTop 2
SYMATTR InstName C5
SYMATTR Value {mc(56n,c1a)}
SYMBOL res 1312 -1072 R90
WINDOW 0 0 56 VBottom 2
WINDOW 3 32 56 VTop 2
SYMATTR InstName R7
SYMATTR Value {mc(100,r1a)}
SYMATTR SpiceLine tol=1
SYMBOL res 2000 -1072 R90
WINDOW 0 0 56 VBottom 2
WINDOW 3 32 56 VTop 2
SYMATTR InstName R7p
SYMATTR Value {mc(100,r1ap)}
SYMATTR SpiceLine tol=1
SYMBOL cap 1536 -448 R0
SYMATTR InstName C4
SYMATTR Value {mc(4.7n,c2m)}
SYMBOL cap 1536 -976 R0
SYMATTR InstName C6
SYMATTR Value {mc(5.6n,c2a)}
SYMBOL res 2432 -1072 R90
WINDOW 0 0 56 VBottom 2
WINDOW 3 32 56 VTop 2
SYMATTR InstName Rinv
SYMATTR Value 1k
SYMATTR SpiceLine tol=1
SYMBOL res 2624 -1200 R90
WINDOW 0 0 56 VBottom 2
WINDOW 3 32 56 VTop 2
SYMATTR InstName Rinvp
SYMATTR Value 1k
SYMBOL res 1440 -336 R90
WINDOW 0 0 56 VBottom 2
WINDOW 3 32 56 VTop 2
SYMATTR InstName R2
SYMATTR Value {mc(100k,r3m)}
SYMATTR SpiceLine tol=5
SYMBOL res 2016 -336 R90
WINDOW 0 0 56 VBottom 2
WINDOW 3 32 56 VTop 2
SYMATTR InstName R4
SYMATTR Value {mc(100k,r3mp)}
SYMATTR SpiceLine tol=5
SYMBOL res 1472 -832 R90
WINDOW 0 0 56 VBottom 2
WINDOW 3 32 56 VTop 2
SYMATTR InstName R6
SYMATTR Value {mc(10k,r3a)}
SYMATTR SpiceLine tol=5
SYMBOL res 2016 -832 R90
WINDOW 0 0 56 VBottom 2
WINDOW 3 32 56 VTop 2
SYMATTR InstName R8
SYMATTR Value {mc(10k,r3ap)}
SYMATTR SpiceLine tol=5
SYMBOL Opamps\\UniversalOpamp2 1712 384 R0
SYMATTR InstName LM833
SYMBOL Opamps\\UniversalOpamp2 1712 -192 R0
SYMATTR InstName LM1
SYMBOL Opamps\\UniversalOpamp2 1712 -720 R0
SYMATTR InstName LM2
SYMBOL Opamps\\UniversalOpamp2 2576 -1040 R0
SYMATTR InstName LM3
SYMBOL cap 3120 -768 R0
SYMATTR InstName C7
SYMATTR Value 100n
SYMBOL cap 3408 -768 R0
SYMATTR InstName C8
SYMATTR Value 100n
TEXT 2816 -504 Left 2 !.lib ".\\LM833.LIB"
TEXT 2816 -472 Left 2 !.ac dec 100 1 1Meg
TEXT 2120 120 Left 2 ;LOW
TEXT 2112 -448 Left 2 ;MEDIUM
TEXT 2120 -984 Left 2 ;HIGH
TEXT 2584 -1264 Left 2 ;VOLUMEN
TEXT 2840 -352 Left 2 !.param r3b = 0.01\n.param r3bp = 0.01\n.param r3m = 0.01\n.param r3mp = 0.01\n.param r3a = 0.01\n.param r3ap = 0.01
TEXT 3096 -360 Left 2 !.param r1b = 0.01\n.param r1bp = 0.01\n.param r1m = 0.01\n.param r1mp = 0.01\n.param r1a = 0.01\n.param r1ap = 0.01
TEXT 2816 -440 Left 2 !;.step param 1 100 1
TEXT 3368 -368 Left 2 !.param c1a = 0.01\n.param c2a = 0.01\n.param c1b = 0.01\n.param c2b = 0.01\n.param c1m = 0.01\n.param c2m = 0.01
