Version 4
SHEET 1 880 1360
WIRE -432 288 -432 224
WIRE -240 288 -240 224
WIRE -432 432 -432 368
WIRE -240 432 -240 368
WIRE 48 496 0 496
WIRE 144 496 112 496
WIRE 0 528 0 496
WIRE 0 528 -48 528
WIRE 0 608 0 528
WIRE 32 608 0 608
WIRE 144 624 144 496
WIRE 144 624 96 624
WIRE 208 624 208 576
WIRE 208 624 144 624
WIRE 288 624 208 624
WIRE -112 640 -192 640
WIRE -16 640 -32 640
WIRE 32 640 -16 640
WIRE 432 640 352 640
WIRE 496 640 432 640
WIRE 0 656 0 608
WIRE 16 656 0 656
WIRE 288 656 256 656
WIRE -928 688 -976 688
WIRE -16 704 -16 640
WIRE -976 720 -976 688
WIRE 256 752 256 656
WIRE 336 752 256 752
WIRE 432 752 432 640
WIRE 432 752 416 752
WIRE 256 768 256 752
WIRE -16 832 -16 784
WIRE 16 864 16 656
WIRE -976 880 -976 800
WIRE 256 912 256 848
WIRE 16 992 16 944
WIRE 192 1072 64 1072
WIRE 432 1072 432 752
WIRE 432 1072 272 1072
WIRE 16 1104 16 1088
FLAG -976 880 0
FLAG -432 224 Vcc
FLAG -240 224 Vee
FLAG -240 432 0
FLAG -432 432 0
FLAG -928 688 Vin
FLAG 64 592 Vcc
FLAG 320 608 Vcc
FLAG 64 656 Vee
FLAG 320 672 Vee
FLAG -128 528 Vin
FLAG -192 640 Vin
FLAG -16 832 0
FLAG 16 1104 0
FLAG 256 912 0
FLAG 208 576 Vout
FLAG 496 640 Vsq
SYMBOL voltage -976 704 R0
SYMATTR InstName V1
SYMATTR Value 1
SYMBOL voltage -432 272 R0
SYMATTR InstName Vcc
SYMATTR Value 15
SYMBOL voltage -240 272 R0
SYMATTR InstName Vee
SYMATTR Value -15
SYMBOL Opamps/opamp2 64 560 R0
SYMATTR InstName U1
SYMATTR Value TL084
SYMBOL res -16 624 R90
WINDOW 0 0 56 VBottom 2
WINDOW 3 32 56 VTop 2
SYMATTR InstName R1
SYMATTR Value 10k
SYMBOL res 0 800 R180
WINDOW 0 36 76 Left 2
WINDOW 3 36 40 Left 2
SYMATTR InstName R2
SYMATTR Value 10k
SYMBOL res -144 544 R270
WINDOW 0 32 56 VTop 2
WINDOW 3 0 56 VBottom 2
SYMATTR InstName 2R
SYMATTR Value 2.5k
SYMBOL res 0 848 R0
SYMATTR InstName R
SYMATTR Value 1.25k
SYMBOL res 288 1056 R90
WINDOW 0 0 56 VBottom 2
WINDOW 3 32 56 VTop 2
SYMATTR InstName R5
SYMATTR Value 1k
SYMBOL cap 112 480 R90
WINDOW 0 0 32 VBottom 2
WINDOW 3 32 32 VTop 2
SYMATTR InstName C1
SYMATTR Value 10n
SYMBOL Opamps/opamp2 320 576 R0
SYMATTR InstName U2
SYMATTR Value TL084
SYMBOL nmos 64 992 M0
SYMATTR InstName M1
SYMBOL res 240 752 R0
SYMATTR InstName R6
SYMATTR Value 1k
SYMBOL res 432 736 R90
WINDOW 0 0 56 VBottom 2
WINDOW 3 32 56 VTop 2
SYMATTR InstName R7
SYMATTR Value 10k
TEXT 328 136 Left 2 !.inc TL084.mod
TEXT -512 800 Left 2 !.tran 0 50m 0
