Version 4
SHEET 1 880 1360
WIRE -432 288 -432 224
WIRE -240 288 -240 224
WIRE -432 432 -432 368
WIRE -240 432 -240 368
WIRE 496 560 496 448
WIRE -928 688 -976 688
WIRE -256 688 -336 688
WIRE -128 688 -256 688
WIRE 352 704 224 704
WIRE 704 704 416 704
WIRE -976 720 -976 688
WIRE 32 736 32 528
WIRE 32 736 -48 736
WIRE 112 736 112 672
WIRE 112 736 32 736
WIRE 352 736 112 736
WIRE 496 736 496 640
WIRE 496 736 416 736
WIRE -256 752 -256 688
WIRE 624 768 416 768
WIRE 704 832 704 704
WIRE -976 880 -976 800
WIRE -256 880 -256 832
WIRE 224 912 224 704
WIRE 496 912 496 736
WIRE 496 912 224 912
WIRE -64 976 -96 976
WIRE -32 976 -64 976
WIRE 496 976 496 912
WIRE 624 976 624 768
WIRE -64 1056 -64 976
WIRE 496 1136 496 1056
WIRE -64 1200 -64 1136
WIRE 224 1280 224 912
WIRE 224 1280 -16 1280
WIRE -64 1344 -64 1296
FLAG -976 880 0
FLAG -256 880 0
FLAG -176 976 Vin
FLAG -32 976 V-
FLAG -64 1344 0
FLAG -432 224 Vcc
FLAG -240 224 Vee
FLAG -240 432 0
FLAG -432 432 0
FLAG -32 528 V-
FLAG 496 1136 0
FLAG 112 672 Vout
FLAG 496 448 Vcc
FLAG -928 688 Vin
FLAG -416 688 Vin
FLAG 704 832 0
FLAG 352 768 Vcc
FLAG 624 976 0
FLAG -128 720 V-
FLAG -48 672 Vcc
FLAG -48 704 Vee
SYMBOL res -320 672 R90
WINDOW 0 0 56 VBottom 2
WINDOW 3 32 56 VTop 2
SYMATTR InstName R3
SYMATTR Value 10k
SYMBOL res -272 736 R0
SYMATTR InstName R3_2
SYMATTR Value 10k
SYMBOL res -80 960 R90
WINDOW 0 0 56 VBottom 2
WINDOW 3 32 56 VTop 2
SYMATTR InstName 2R
SYMATTR Value 18.2k
SYMBOL res -80 1040 R0
SYMATTR InstName R
SYMATTR Value 9.1k
SYMBOL res 480 960 R0
SYMATTR InstName R1
SYMATTR Value 3.6k
SYMBOL nmos -16 1200 M0
SYMATTR InstName M1
SYMBOL cap 32 512 R90
WINDOW 0 0 32 VBottom 2
WINDOW 3 32 32 VTop 2
SYMATTR InstName C1
SYMATTR Value 680p
SYMBOL voltage -976 704 R0
SYMATTR InstName V1
SYMATTR Value 1
SYMBOL voltage -432 272 R0
SYMATTR InstName Vcc
SYMATTR Value 15
SYMBOL voltage -240 272 R0
SYMATTR InstName Vee
SYMATTR Value -15
SYMBOL res 480 544 R0
SYMATTR InstName R2
SYMATTR Value 1.8k
SYMBOL AutoGenerated/LF356_NS -96 704 R0
SYMATTR InstName U3
SYMBOL AutoGenerated/LM311 384 736 R0
SYMATTR InstName U1
TEXT 128 376 Left 2 !.tran 0.5 40m 0
