Version 4
SHEET 1 2472 680
WIRE 480 -160 128 -160
WIRE 944 -160 560 -160
WIRE 1680 -160 1328 -160
WIRE 2144 -160 1760 -160
WIRE 128 -80 128 -160
WIRE 160 -80 128 -80
WIRE 304 -80 240 -80
WIRE 1328 -80 1328 -160
WIRE 1360 -80 1328 -80
WIRE 1504 -80 1440 -80
WIRE 128 16 128 -80
WIRE 160 16 128 16
WIRE 304 16 304 -80
WIRE 304 16 224 16
WIRE 1328 16 1328 -80
WIRE 1360 16 1328 16
WIRE 1504 16 1504 -80
WIRE 1504 16 1424 16
WIRE 480 32 416 32
WIRE 608 32 560 32
WIRE 1680 32 1616 32
WIRE 1808 32 1760 32
WIRE 800 48 736 48
WIRE 944 48 944 -160
WIRE 944 48 864 48
WIRE 2000 48 1936 48
WIRE 2144 48 2144 -160
WIRE 2144 48 2064 48
WIRE -480 128 -480 80
WIRE -368 128 -368 80
WIRE -256 128 -256 80
WIRE -32 144 -64 144
WIRE 128 144 128 16
WIRE 128 144 48 144
WIRE 176 144 128 144
WIRE 1168 144 1136 144
WIRE 1328 144 1328 16
WIRE 1328 144 1248 144
WIRE 1376 144 1328 144
WIRE 304 160 304 16
WIRE 304 160 240 160
WIRE 320 160 304 160
WIRE 416 160 416 32
WIRE 416 160 400 160
WIRE 496 160 416 160
WIRE 1504 160 1504 16
WIRE 1504 160 1440 160
WIRE 1520 160 1504 160
WIRE 1616 160 1616 32
WIRE 1616 160 1600 160
WIRE 1696 160 1616 160
WIRE 176 176 144 176
WIRE 608 176 608 32
WIRE 608 176 560 176
WIRE 624 176 608 176
WIRE 736 176 736 48
WIRE 736 176 704 176
WIRE 800 176 736 176
WIRE 1376 176 1344 176
WIRE 1808 176 1808 32
WIRE 1808 176 1760 176
WIRE 1824 176 1808 176
WIRE 1936 176 1936 48
WIRE 1936 176 1904 176
WIRE 2000 176 1936 176
WIRE 496 192 464 192
WIRE 944 192 944 48
WIRE 944 192 864 192
WIRE 1696 192 1664 192
WIRE 2144 192 2144 48
WIRE 2144 192 2064 192
WIRE 144 208 144 176
WIRE 800 208 768 208
WIRE 1344 208 1344 176
WIRE 2000 208 1968 208
WIRE 464 224 464 192
WIRE 1664 224 1664 192
WIRE 768 240 768 208
WIRE 1968 240 1968 208
WIRE -480 256 -480 208
WIRE -368 256 -368 208
WIRE -256 256 -256 208
WIRE -64 320 -64 144
WIRE 176 320 -64 320
WIRE 416 320 416 160
WIRE 416 320 256 320
WIRE 1136 320 1136 144
WIRE 1376 320 1136 320
WIRE 1616 320 1616 160
WIRE 1616 320 1456 320
WIRE -64 432 -64 320
WIRE 176 432 -64 432
WIRE 736 432 736 176
WIRE 736 432 256 432
WIRE 1136 432 1136 320
WIRE 1376 432 1136 432
WIRE 1936 432 1936 176
WIRE 1936 432 1456 432
FLAG -480 256 0
FLAG -368 256 0
FLAG -256 256 0
FLAG -480 80 Vin
FLAG -368 80 Vcc
FLAG 208 128 Vcc
FLAG -256 80 -Vcc
FLAG 208 192 -Vcc
FLAG 144 208 0
FLAG 528 144 Vcc
FLAG 528 208 -Vcc
FLAG 464 224 0
FLAG 832 160 Vcc
FLAG 832 224 -Vcc
FLAG 768 240 0
FLAG 1408 128 Vcc
FLAG 1408 192 -Vcc
FLAG 1344 208 0
FLAG 1728 144 Vcc
FLAG 1728 208 -Vcc
FLAG 1664 224 0
FLAG 2032 160 Vcc
FLAG 2032 224 -Vcc
FLAG 1968 240 0
FLAG -64 144 Vin
FLAG 608 32 Vp
FLAG 1808 32 Vout
SYMBOL voltage -480 112 R0
WINDOW 123 24 124 Left 2
WINDOW 39 0 0 Left 0
SYMATTR Value2 AC 1
SYMATTR InstName V1
SYMATTR Value ""
SYMBOL voltage -368 112 R0
SYMATTR InstName V2
SYMATTR Value 15
SYMBOL voltage -256 112 R0
SYMATTR InstName V3
SYMATTR Value -15
SYMBOL Opamps\\UniversalOpamp2 208 160 R0
SYMATTR InstName LM833
SYMBOL Opamps\\UniversalOpamp2 528 176 R0
SYMATTR InstName LM1
SYMBOL Opamps\\UniversalOpamp2 832 192 R0
SYMATTR InstName LM2
SYMBOL res 576 -176 R90
WINDOW 0 0 56 VBottom 2
WINDOW 3 32 56 VTop 2
SYMATTR InstName R1
SYMATTR Value 114.5
SYMBOL res 256 -96 R90
WINDOW 0 0 56 VBottom 2
WINDOW 3 32 56 VTop 2
SYMATTR InstName R2
SYMATTR Value 1.7k
SYMBOL res 64 128 R90
WINDOW 0 0 56 VBottom 2
WINDOW 3 32 56 VTop 2
SYMATTR InstName R3
SYMATTR Value 47k
SYMBOL res 416 144 R90
WINDOW 0 0 56 VBottom 2
WINDOW 3 32 56 VTop 2
SYMATTR InstName R4
SYMATTR Value 1.7k
SYMBOL res 576 16 R90
WINDOW 0 0 56 VBottom 2
WINDOW 3 32 56 VTop 2
SYMATTR InstName R5
SYMATTR Value 35.3k
SYMBOL res 720 160 R90
WINDOW 0 0 56 VBottom 2
WINDOW 3 32 56 VTop 2
SYMATTR InstName R6
SYMATTR Value 54.2k
SYMBOL res 272 304 R90
WINDOW 0 0 56 VBottom 2
WINDOW 3 32 56 VTop 2
SYMATTR InstName R7
SYMATTR Value 47k
SYMBOL res 272 416 R90
WINDOW 0 0 56 VBottom 2
WINDOW 3 32 56 VTop 2
SYMATTR InstName R8
SYMATTR Value 47k
SYMBOL cap 224 0 R90
WINDOW 0 0 32 VBottom 2
WINDOW 3 32 32 VTop 2
SYMATTR InstName C1
SYMATTR Value 10n
SYMBOL cap 864 32 R90
WINDOW 0 0 32 VBottom 2
WINDOW 3 32 32 VTop 2
SYMATTR InstName C2
SYMATTR Value 10n
SYMBOL Opamps\\UniversalOpamp2 1408 160 R0
SYMATTR InstName LM3
SYMBOL Opamps\\UniversalOpamp2 1728 176 R0
SYMATTR InstName LM4
SYMBOL Opamps\\UniversalOpamp2 2032 192 R0
SYMATTR InstName LM5
SYMBOL res 1776 -176 R90
WINDOW 0 0 56 VBottom 2
WINDOW 3 32 56 VTop 2
SYMATTR InstName R9
SYMATTR Value 145.5
SYMBOL res 1456 -96 R90
WINDOW 0 0 56 VBottom 2
WINDOW 3 32 56 VTop 2
SYMATTR InstName R10
SYMATTR Value 1.2k
SYMBOL res 1264 128 R90
WINDOW 0 0 56 VBottom 2
WINDOW 3 32 56 VTop 2
SYMATTR InstName R11
SYMATTR Value 47k
SYMBOL res 1616 144 R90
WINDOW 0 0 56 VBottom 2
WINDOW 3 32 56 VTop 2
SYMATTR InstName R12
SYMATTR Value 1.2k
SYMBOL res 1776 16 R90
WINDOW 0 0 56 VBottom 2
WINDOW 3 32 56 VTop 2
SYMATTR InstName R13
SYMATTR Value 65.6k
SYMBOL res 1920 160 R90
WINDOW 0 0 56 VBottom 2
WINDOW 3 32 56 VTop 2
SYMATTR InstName R14
SYMATTR Value 54.2k
SYMBOL res 1472 304 R90
WINDOW 0 0 56 VBottom 2
WINDOW 3 32 56 VTop 2
SYMATTR InstName R15
SYMATTR Value 47k
SYMBOL res 1472 416 R90
WINDOW 0 0 56 VBottom 2
WINDOW 3 32 56 VTop 2
SYMATTR InstName R16
SYMATTR Value 47k
SYMBOL cap 1424 0 R90
WINDOW 0 0 32 VBottom 2
WINDOW 3 32 32 VTop 2
SYMATTR InstName C3
SYMATTR Value 10n
SYMBOL cap 2064 32 R90
WINDOW 0 0 32 VBottom 2
WINDOW 3 32 32 VTop 2
SYMATTR InstName C4
SYMATTR Value 10n
TEXT -496 392 Left 2 !.lib ".\\LM833.lib"
TEXT -512 528 Left 2 !.ac dec 1000 1 1Meg
